16
 energy: -31.983681788270 gnorm: 0.000372144832 xtb: 6.2.2 (89a525f)
N           1.46226284012671     0.18335744247169    -0.07855270314916
C           1.31781205014203    -1.15293393777405     0.05955064599303
C           1.54055132778996    -2.13428714261960    -0.91007075980005
C           1.98029754954570    -1.74761862944617    -2.21865239727883
N           2.10914370306048    -0.33402358897783    -2.27674973147307
C           1.86775867472018     0.54390043382692    -1.26343764079100
N           1.27680953207984    -3.36757233307534    -0.37748854905490
C           0.91461226786592    -3.14740906594264     0.84460715972356
N           0.91768716624572    -1.81594469141732     1.17440471889163
O           2.23471850070944    -2.39670706107528    -3.20454497820690
N           2.11460025487082     1.85836120568312    -1.49845077783225
H           0.67952040591559    -1.39514835256529     2.05664466916869
H           0.63659476510547    -3.91144927326480     1.54245387480526
H           2.43918920019300     0.01672894983906    -3.16809193535854
H           1.78950116764777     2.49655065642122    -0.79277065540295
H           2.15173216814906     2.19392916334893    -2.44513710915798
